units(length='cm', time='s', quantity='mol', act_energy='kcal/mol')

ideal_gas(name='gas',
          elements="H D T C Ci O Oi N Ne Ar He Si S F Cl Br I X",
          species="""N2          Ar          He          Ne
                     butane(1)   O2(2)       CH(3)       C2H(4)
                     O(5)        CO(6)       CO2(7)      H2O(8)
                     CH2O(9)     CH4(10)     C2H4(11)    C3H6(12)
                     H2(13)      C2H5(16)    CH3(18)     C4H9(19)
                     H(20)       C4H9(21)    HO2(22)     CC(26)
                     C2H5O2(27)  CH3O2(28)   C2H5O(29)   HO(33)
                     C2H4O(34)   C2H3(36)    OO(38)      CCOO(41)
                     C4H8(46)    C3H7(50)    C4H8(54)    C4H9O2(57)
                     S(59)       C3H7O2(60)  C3H7O2(61)  C4H9O(62)
                     C4H9O2(72)  C3H6(76)    COO(91)     C3H7O2(93)
                     C4H8O(95)   C4H8O2(96)  C4H8O(98)   S(104)
                     CH3O(106)   S(108)      S(109)      S(119)
                     S(121)      S(123)      S(124)      C4H7(128)
                     C4H8(130)   S(144)      C3H5O(147)  C2H3O(148)
                     S(161)      S(168)      S(169)      C2H5O(174)
                     CHO(177)    S(200)      S(209)      C2H3O(212)
                     S(215)      C2H4O(218)  S(229)      C2H2O(249)
                     S(262)      S(272)      S(280)      S(287)
                     S(293)      S(307)      S(716)      S(741)
                     S(828)      S(837)      C4H7O(958)  CO-2(969)
                     S(1870)     S(1883)     S(2146)     S(2578)
                     C#C(2633)   S(2791)     S(3083)     S(3121)
                     S(3414)     S(3420)     S(4710)     C2H2(5810)
                     S(6772)     S(6802)     S(8787)     S(8788)
                     S(8935)""",
          reactions='all',
          transport='Mix',
          initial_state=state(temperature=300.0, pressure=OneAtm))

#-------------------------------------------------------------------------------
# Element data
#-------------------------------------------------------------------------------

element(symbol='Ci', atomic_mass=13.003)
element(symbol='D', atomic_mass=2.014)
element(symbol='Oi', atomic_mass=17.999)
element(symbol='T', atomic_mass=3.016)
element(symbol='X', atomic_mass=195.083)
#-------------------------------------------------------------------------------
# Species data
#-------------------------------------------------------------------------------

species(name='N2',
        atoms='N:2',
        thermo=(NASA([200.00, 1000.00],
                     [ 3.53101000E+00, -1.23661000E-04, -5.02999000E-07,
                       2.43531000E-09, -1.40881000E-12, -1.04698000E+03,
                       2.96747000E+00]),
                NASA([1000.00, 6000.00],
                     [ 2.95258000E+00,  1.39690000E-03, -4.92632000E-07,
                       7.86010000E-11, -4.60755000E-15, -9.23949000E+02,
                       5.87189000E+00])),
        transport=gas_transport(geom='linear',
                                diam=3.621,
                                well_depth=97.53,
                                polar=1.76,
                                rot_relax=4.0))

species(name='Ar',
        atoms='Ar:1',
        thermo=(NASA([200.00, 1000.00],
                     [ 2.50000000E+00,  0.00000000E+00,  0.00000000E+00,
                       0.00000000E+00,  0.00000000E+00, -7.45375000E+02,
                       4.37967000E+00]),
                NASA([1000.00, 6000.00],
                     [ 2.50000000E+00,  0.00000000E+00,  0.00000000E+00,
                       0.00000000E+00,  0.00000000E+00, -7.45375000E+02,
                       4.37967000E+00])),
        transport=gas_transport(geom='atom',
                                diam=3.33,
                                well_depth=136.501))

species(name='He',
        atoms='He:1',
        thermo=(NASA([200.00, 1000.00],
                     [ 2.50000000E+00,  0.00000000E+00,  0.00000000E+00,
                       0.00000000E+00,  0.00000000E+00, -7.45375000E+02,
                       9.28724000E-01]),
                NASA([1000.00, 6000.00],
                     [ 2.50000000E+00,  0.00000000E+00,  0.00000000E+00,
                       0.00000000E+00,  0.00000000E+00, -7.45375000E+02,
                       9.28724000E-01])),
        transport=gas_transport(geom='atom',
                                diam=2.576,
                                well_depth=10.2))

species(name='Ne',
        atoms='Ne:1',
        thermo=(NASA([200.00, 1000.00],
                     [ 2.50000000E+00,  0.00000000E+00,  0.00000000E+00,
                       0.00000000E+00,  0.00000000E+00, -7.45375000E+02,
                       3.35532000E+00]),
                NASA([1000.00, 6000.00],
                     [ 2.50000000E+00,  0.00000000E+00,  0.00000000E+00,
                       0.00000000E+00,  0.00000000E+00, -7.45375000E+02,
                       3.35532000E+00])),
        transport=gas_transport(geom='atom',
                                diam=3.758,
                                well_depth=148.6))

species(name='butane(1)',
        atoms='C:4 H:10',
        thermo=(NASA([100.00, 1025.39],
                     [ 2.31393855E+00,  2.83759976E-02,  2.03223723E-05,
                      -3.82741998E-08,  1.45041115E-11, -1.72875364E+04,
                       1.49639544E+01]),
                NASA([1025.39, 5000.00],
                     [ 7.36808992E+00,  2.93848830E-02, -1.14713525E-05,
                       2.10840173E-09, -1.47485708E-13, -1.94135552E+04,
                      -1.48588793E+01])),
        transport=gas_transport(geom='nonlinear',
                                diam=5.415,
                                well_depth=348.415))

species(name='O2(2)',
        atoms='O:2',
        thermo=(NASA([100.00, 1074.56],
                     [ 3.53732118E+00, -1.21570202E-03,  5.31615358E-06,
                      -4.89440364E-09,  1.45843807E-12, -1.03858843E+03,
                       4.68368633E+00]),
                NASA([1074.56, 5000.00],
                     [ 3.15382774E+00,  1.67803224E-03, -7.69967755E-07,
                       1.51273954E-10, -1.08781177E-14, -1.04082031E+03,
                       6.16751905E+00])),
        transport=gas_transport(geom='linear',
                                diam=3.467,
                                well_depth=106.7))

species(name='CH(3)',
        atoms='C:1 H:1',
        thermo=(NASA([100.00, 926.50],
                     [ 4.11488693E+00, -3.61095053E-04, -6.34723924E-06,
                       1.05886294E-08, -4.57050060E-12,  7.50838552E+04,
                       1.61268374E+00]),
                NASA([926.50, 5000.00],
                     [ 2.33972224E+00,  1.75859855E-03, -8.02926625E-07,
                       1.40459778E-10, -8.47516241E-15,  7.56507553E+04,
                       1.13255037E+01])),
        transport=gas_transport(geom='linear',
                                diam=2.75,
                                well_depth=80.0))

species(name='C2H(4)',
        atoms='C:2 H:1',
        thermo=(NASA([100.00, 1076.58],
                     [ 3.03853239E+00,  1.15448987E-02, -2.13263309E-05,
                       1.81931933E-08, -5.41586623E-12,  6.63980140E+04,
                       5.96674957E+00]),
                NASA([1076.58, 5000.00],
                     [ 4.00845448E+00,  2.06816921E-03,  6.04933235E-08,
                      -1.17706613E-10,  1.29280360E-14,  6.65295221E+04,
                       2.79655742E+00])),
        transport=gas_transport(geom='linear',
                                diam=4.1,
                                well_depth=209.001,
                                rot_relax=2.5))

species(name='O(5)',
        atoms='O:1',
        thermo=(NASA([100.00, 4996.86],
                     [ 2.50000000E+00,  4.30732087E-14, -5.28912510E-17,
                       2.10457488E-20, -2.57139738E-24,  2.92302441E+04,
                       5.12616427E+00]),
                NASA([4996.86, 5000.00],
                     [-4.86862231E+01,  1.90728012E-02,  8.49269033E-07,
                      -9.90485659E-10,  9.34419177E-14,  1.07727320E+05,
                       3.61779183E+02])),
        transport=gas_transport(geom='atom',
                                diam=2.75,
                                well_depth=80.0))

species(name='CO(6)',
        atoms='C:1 O:1',
        thermo=(NASA([100.00, 1571.65],
                     [ 3.56837933E+00, -8.52119359E-04,  2.48916154E-06,
                      -1.56329526E-09,  3.13590826E-13, -1.42842549E+04,
                       3.57912422E+00]),
                NASA([1571.65, 5000.00],
                     [ 2.91308532E+00,  1.64655185E-03, -6.88601689E-07,
                       1.21034554E-10, -7.83996529E-15, -1.41808944E+04,
                       6.71034902E+00])),
        transport=gas_transport(geom='linear',
                                diam=3.69,
                                well_depth=91.7,
                                polar=1.76,
                                rot_relax=4.0))

species(name='CO2(7)',
        atoms='C:1 O:2',
        thermo=(NASA([100.00, 988.89],
                     [ 3.27861398E+00,  2.74149048E-03,  7.16085140E-06,
                      -1.08028783E-08,  4.14288342E-12, -4.84703146E+04,
                       5.97935557E+00]),
                NASA([988.89, 5000.00],
                     [ 4.54608541E+00,  2.91915070E-03, -1.15484754E-06,
                       2.27656112E-10, -1.70911974E-14, -4.89803552E+04,
                      -1.43268876E+00])),
        transport=gas_transport(geom='linear',
                                diam=3.941,
                                well_depth=195.201))

species(name='H2O(8)',
        atoms='H:2 O:1',
        thermo=(NASA([100.00, 1130.24],
                     [ 4.05763582E+00, -7.87935662E-04,  2.90877429E-06,
                      -1.47518785E-09,  2.12842652E-13, -3.02815866E+04,
                      -3.11363998E-01]),
                NASA([1130.24, 5000.00],
                     [ 2.84325062E+00,  2.75108520E-03, -7.81031348E-07,
                       1.07243608E-10, -5.79391987E-15, -2.99586128E+04,
                       5.91041898E+00])),
        transport=gas_transport(geom='nonlinear',
                                diam=2.641,
                                well_depth=809.102,
                                polar=1.76,
                                rot_relax=4.0))

species(name='CH2O(9)',
        atoms='C:1 H:2 O:1',
        thermo=(NASA([100.00, 1402.27],
                     [ 4.32290543E+00, -5.06336854E-03,  2.15158328E-05,
                      -1.76524210E-08,  4.31824112E-12, -1.42789569E+04,
                       2.39239026E+00]),
                NASA([1402.27, 5000.00],
                     [ 3.17977717E+00,  9.55625046E-03, -6.27315295E-06,
                       1.33557553E-09, -9.68434055E-14, -1.50751400E+04,
                       4.31177058E+00])),
        transport=gas_transport(geom='nonlinear',
                                diam=3.59,
                                well_depth=498.002,
                                rot_relax=2.0))

species(name='CH4(10)',
        atoms='C:1 H:4',
        thermo=(NASA([100.00, 1084.12],
                     [ 4.20541378E+00, -5.35555685E-03,  2.51122700E-05,
                      -2.13762147E-08,  5.97521149E-12, -1.01619432E+04,
                      -9.21274032E-01]),
                NASA([1084.12, 5000.00],
                     [ 9.08274117E-01,  1.14540720E-02, -4.57173047E-06,
                       8.29189859E-10, -5.66313411E-14, -9.71997811E+03,
                       1.39930469E+01])),
        transport=gas_transport(geom='nonlinear',
                                diam=3.746,
                                well_depth=141.4,
                                polar=2.6,
                                rot_relax=13.0))

species(name='C2H4(11)',
        atoms='C:2 H:4',
        thermo=(NASA([100.00, 940.45],
                     [ 3.97972669E+00, -7.57538055E-03,  5.52965162E-05,
                      -6.36210596E-08,  2.31762192E-11,  5.07746161E+03,
                       4.04629053E+00]),
                NASA([940.45, 5000.00],
                     [ 5.20305012E+00,  7.82432711E-03, -2.12677700E-06,
                       3.79676927E-10, -2.94659325E-14,  3.93625827E+03,
                      -6.62442460E+00])),
        transport=gas_transport(geom='nonlinear',
                                diam=3.971,
                                well_depth=280.801,
                                rot_relax=1.5))

species(name='C3H6(12)',
        atoms='C:3 H:6',
        thermo=(NASA([100.00, 988.01],
                     [ 3.30973207E+00,  8.27538705E-03,  3.37700340E-05,
                      -4.39287743E-08,  1.58763463E-11,  7.67477281E+02,
                       9.64363543E+00]),
                NASA([988.01, 5000.00],
                     [ 5.41219812E+00,  1.72863314E-02, -6.51343663E-06,
                       1.20319030E-09, -8.55894200E-14, -5.03241539E+02,
                      -4.80239901E+00])),
        transport=gas_transport(geom='nonlinear',
                                diam=4.982,
                                well_depth=266.801,
                                rot_relax=1.0))

species(name='H2(13)',
        atoms='H:2',
        thermo=(NASA([100.00, 1959.07],
                     [ 3.43536403E+00,  2.12711126E-04, -2.78626796E-07,
                       3.40268542E-10, -7.76035403E-14, -1.03135984E+03,
                      -3.90841698E+00]),
                NASA([1959.07, 5000.00],
                     [ 2.78817514E+00,  5.87628848E-04,  1.59016078E-07,
                      -5.52750390E-11,  4.34319267E-15, -5.96149762E+02,
                       1.12677478E-01])),
        transport=gas_transport(geom='linear',
                                diam=2.833,
                                well_depth=59.7))

species(name='C2H5(16)',
        atoms='C:2 H:5',
        thermo=(NASA([100.00, 900.31],
                     [ 3.82184925E+00, -3.43377192E-03,  5.09263674E-05,
                      -6.20220708E-08,  2.37077602E-11,  1.30660123E+04,
                       7.61638668E+00]),
                NASA([900.31, 5000.00],
                     [ 5.15617385E+00,  9.43128694E-03, -1.81949617E-06,
                       2.21204474E-10, -1.43488612E-14,  1.20640966E+04,
                      -2.91079117E+00])),
        transport=gas_transport(geom='nonlinear',
                                diam=4.302,
                                well_depth=252.301,
                                rot_relax=1.5))

species(name='CH3(18)',
        atoms='C:1 H:3',
        thermo=(NASA([100.00, 1337.62],
                     [ 3.91546821E+00,  1.84153699E-03,  3.48743585E-06,
                      -3.32749521E-09,  8.49963335E-13,  1.62856393E+04,
                       3.51739283E-01]),
                NASA([1337.62, 5000.00],
                     [ 3.54144874E+00,  4.76788165E-03, -1.82149132E-06,
                       3.28878156E-10, -2.22546835E-14,  1.62239622E+04,
                       1.66039998E+00])),
        transport=gas_transport(geom='nonlinear',
                                diam=3.8,
                                well_depth=144.001))

species(name='C4H9(19)',
        atoms='C:4 H:9',
        thermo=(NASA([100.00, 1230.10],
                     [ 2.51759482E+00,  2.84119331E-02,  2.01444392E-06,
                      -1.19579371E-08,  4.04536870E-12,  6.08739793E+03,
                       1.76690448E+01]),
                NASA([1230.10, 5000.00],
                     [ 5.03048738E+00,  3.00838537E-02, -1.20273555E-05,
                       2.15737552E-09, -1.45455225E-13,  4.72446326E+03,
                       1.99833622E+00])),
        transport=gas_transport(geom='nonlinear',
                                diam=5.176,
                                well_depth=357.002,
                                rot_relax=1.0))

species(name='H(20)',
        atoms='H:1',
        thermo=(NASA([100.00, 4996.86],
                     [ 2.50000000E+00,  4.30732087E-14, -5.28912510E-17,
                       2.10457488E-20, -2.57139738E-24,  2.54742178E+04,
                      -4.44972896E-01]),
                NASA([4996.86, 5000.00],
                     [-4.86862231E+01,  1.90728012E-02,  8.49269033E-07,
                      -9.90485659E-10,  9.34419177E-14,  1.03971294E+05,
                       3.56208045E+02])),
        transport=gas_transport(geom='atom',
                                diam=2.05,
                                well_depth=145.0))

species(name='C4H9(21)',
        atoms='C:4 H:9',
        thermo=(NASA([100.00, 1048.10],
                     [ 2.34849421E+00,  2.91322496E-02,  9.83700709E-06,
                      -2.60513463E-08,  1.01154067E-11,  7.39526498E+03,
                       1.73201418E+01]),
                NASA([1048.10, 5000.00],
                     [ 7.21567563E+00,  2.70037730E-02, -1.06547812E-05,
                       1.95473408E-09, -1.35978992E-13,  5.47165547E+03,
                      -1.06993187E+01])),
        transport=gas_transport(geom='nonlinear',
                                diam=5.176,
                                well_depth=357.002,
                                rot_relax=1.0))

species(name='HO2(22)',
        atoms='H:1 O:2',
        thermo=(NASA([100.00, 932.14],
                     [ 4.04594879E+00, -1.73469622E-03,  1.03768320E-05,
                      -1.02205013E-08,  3.34919903E-12, -9.86754411E+02,
                       4.63579906E+00]),
                NASA([932.14, 5000.00],
                     [ 3.21022659E+00,  3.67944075E-03, -1.27702793E-06,
                       2.18048178E-10, -1.46340377E-14, -9.10363611E+02,
                       8.18298594E+00])),
        transport=gas_transport(geom='nonlinear',
                                diam=3.458,
                                well_depth=107.4,
                                rot_relax=1.0))

species(name='CC(26)',
        atoms='C:2 H:6',
        thermo=(NASA([100.00, 954.51],
                     [ 3.78035672E+00, -3.24289530E-03,  5.52390301E-05,
                      -6.38594391E-08,  2.28642959E-11, -1.16203418E+04,
                       5.21025834E+00]),
                NASA([954.51, 5000.00],
                     [ 4.58975846E+00,  1.41509002E-02, -4.75969503E-06,
                       8.60311768E-10, -6.21731237E-14, -1.27217355E+04,
                      -3.61698225E+00])),
        transport=gas_transport(geom='nonlinear',
                                diam=4.302,
                                well_depth=252.301,
                                rot_relax=1.5))

species(name='C2H5O2(27)',
        atoms='C:2 H:5 O:2',
        thermo=(NASA([100.00, 1095.55],
                     [ 2.80473397E+00,  2.78957867E-02, -1.90393612E-05,
                       7.91902166E-09, -1.55080973E-12, -3.93470035E+03,
                       1.36321193E+01]),
                NASA([1095.55, 5000.00],
                     [ 4.87874370E+00,  2.03232758E-02, -8.67123452E-06,
                       1.60976543E-09, -1.11059020E-13, -4.38913523E+03,
                       3.43696073E+00])),
        transport=gas_transport(geom='nonlinear',
                                diam=4.037,
                                well_depth=395.0,
                                dipole=1.3,
                                rot_relax=1.0))

species(name='CH3O2(28)',
        atoms='C:1 H:3 O:2',
        thermo=(NASA([100.00, 2096.19],
                     [ 3.66590295E+00,  1.04793963E-02, -2.30380909E-06,
                      -5.38699094E-10,  1.86907825E-13,  5.48716575E+02,
                       8.70199946E+00]),
                NASA([2096.19, 5000.00],
                     [ 6.47615035E+00,  8.47763107E-03, -3.27631708E-06,
                       5.35452906E-10, -3.24196084E-14, -1.36782153E+03,
                      -8.69697395E+00])),
        transport=gas_transport(geom='nonlinear',
                                diam=3.69,
                                well_depth=417.0,
                                dipole=1.7,
                                rot_relax=2.0))

species(name='C2H5O(29)',
        atoms='C:2 H:5 O:1',
        thermo=(NASA([100.00, 1600.54],
                     [ 3.57141495E+00,  1.17364306E-02,  5.58653475E-06,
                      -7.26346219E-09,  1.74164913E-12, -3.69897402E+03,
                       1.02305187E+01]),
                NASA([1600.54, 5000.00],
                     [ 4.07895800E+00,  1.83125811E-02, -7.92829683E-06,
                       1.42800451E-09, -9.42368753E-14, -4.86623247E+03,
                       4.40429852E+00])),
        transport=gas_transport(geom='nonlinear',
                                diam=4.53,
                                well_depth=362.6,
                                rot_relax=1.5))

species(name='HO(33)',
        atoms='H:1 O:1',
        thermo=(NASA([100.00, 1145.75],
                     [ 3.51456804E+00,  2.92773617E-05, -5.32163358E-07,
                       1.01949027E-09, -3.85945173E-13,  3.41425420E+03,
                       2.10434883E+00]),
                NASA([1145.75, 5000.00],
                     [ 3.07193980E+00,  6.04015701E-04, -1.39782948E-08,
                      -2.13446092E-11,  2.48065653E-15,  3.57938677E+03,
                       4.57800011E+00])),
        transport=gas_transport(geom='linear',
                                diam=2.75,
                                well_depth=80.0))

species(name='C2H4O(34)',
        atoms='C:2 H:4 O:1',
        thermo=(NASA([100.00, 984.20],
                     [ 3.70078075E+00,  3.87936031E-04,  3.86925084E-05,
                      -4.52442036E-08,  1.58857014E-11, -2.13809080E+04,
                       9.13565445E+00]),
                NASA([984.20, 5000.00],
                     [ 4.58892684E+00,  1.28893167E-02, -4.91498712E-06,
                       9.26500504E-10, -6.71004795E-14, -2.23360285E+04,
                       9.00891200E-01])),
        transport=gas_transport(geom='nonlinear',
                                diam=3.97,
                                well_depth=436.001,
                                rot_relax=2.0))

species(name='C2H3(36)',
        atoms='C:2 H:3',
        thermo=(NASA([100.00, 931.97],
                     [ 3.90667866E+00, -4.06207873E-03,  3.86767693E-05,
                      -4.62959329E-08,  1.72892622E-11,  3.47971794E+04,
                       6.09798480E+00]),
                NASA([931.97, 5000.00],
                     [ 5.44804751E+00,  4.98341869E-03, -1.08812412E-06,
                       1.79817317E-10, -1.45079556E-14,  3.38297412E+04,
                      -4.87854196E+00])),
        transport=gas_transport(geom='nonlinear',
                                diam=4.1,
                                well_depth=209.001,
                                rot_relax=1.0))

species(name='OO(38)',
        atoms='H:2 O:2',
        thermo=(NASA([100.00, 908.86],
                     [ 3.73136953E+00,  3.35056537E-03,  9.35087421E-06,
                      -1.52107268E-08,  6.41620765E-12, -1.77211713E+04,
                       5.45906763E+00]),
                NASA([908.86, 5000.00],
                     [ 5.41575603E+00,  2.61013588E-03, -4.39924163E-07,
                       4.91164790E-11, -3.35253438E-15, -1.83029398E+04,
                      -4.02230800E+00])),
        transport=gas_transport(geom='nonlinear',
                                diam=4.196,
                                well_depth=289.3))

species(name='CCOO(41)',
        atoms='C:2 H:6 O:2',
        thermo=(NASA([100.00, 1748.24],
                     [ 2.36484855E+00,  3.35063994E-02, -2.10185799E-05,
                       6.57792305E-09, -8.43695228E-13, -2.21976612E+04,
                       1.44538342E+01]),
                NASA([1748.24, 5000.00],
                     [ 9.45936908E+00,  1.72739061E-02, -7.09090315E-06,
                       1.26676029E-09, -8.41881792E-14, -2.46782276E+04,
                      -2.37361404E+01])),
        transport=gas_transport(geom='nonlinear',
                                diam=4.037,
                                well_depth=395.0,
                                dipole=1.3,
                                rot_relax=1.0))

species(name='C4H8(46)',
        atoms='C:4 H:8',
        thermo=(NASA([100.00, 991.79],
                     [ 2.64175525E+00,  2.03700381E-02,  3.05815596E-05,
                      -4.85565592E-08,  1.85234431E-11, -1.92980876E+03,
                       1.49536800E+01]),
                NASA([991.79, 5000.00],
                     [ 7.80830174E+00,  2.29242002E-02, -8.65891596E-06,
                       1.60051562E-09, -1.13878025E-13, -4.10508228E+03,
                      -1.57291777E+01])),
        transport=gas_transport(geom='nonlinear',
                                diam=5.176,
                                well_depth=357.002,
                                rot_relax=1.0))

species(name='C3H7(50)',
        atoms='C:3 H:7',
        thermo=(NASA([100.00, 1100.31],
                     [ 3.21173557E+00,  1.31076458E-02,  1.99169203E-05,
                      -2.55872265E-08,  8.25826390E-12,  8.90792370E+03,
                       1.18466871E+01]),
                NASA([1100.31, 5000.00],
                     [ 3.65564545E+00,  2.30583269E-02, -9.41364926E-06,
                       1.73590959E-09, -1.20101047E-13,  8.11019400E+03,
                       6.48152883E+00])),
        transport=gas_transport(geom='nonlinear',
                                diam=4.982,
                                well_depth=266.801,
                                rot_relax=1.0))

species(name='C4H8(54)',
        atoms='C:4 H:8',
        thermo=(NASA([100.00, 1081.87],
                     [ 2.61745842E+00,  2.43421575E-02,  1.17368911E-05,
                      -2.39953938E-08,  8.67991359E-12, -3.54151345E+03,
                       1.32442617E+01]),
                NASA([1081.87, 5000.00],
                     [ 5.99495681E+00,  2.61386608E-02, -1.05588757E-05,
                       1.94786808E-09, -1.35283127E-13, -5.10824791E+03,
                      -7.17937381E+00])),
        transport=gas_transport(geom='nonlinear',
                                diam=5.289,
                                well_depth=359.053))

species(name='C4H9O2(57)',
        atoms='C:4 H:9 O:2',
        thermo=(NASA([100.00, 1352.71],
                     [ 1.41174404E+00,  5.65301477E-02, -4.05021408E-05,
                       1.58078047E-08, -2.63473464E-12, -1.11239269E+04,
                       2.27699407E+01]),
                NASA([1352.71, 5000.00],
                     [ 9.67020213E+00,  3.21097934E-02, -1.34229164E-05,
                       2.46220900E-09, -1.68292269E-13, -1.33581985E+04,
                      -1.95673522E+01])),
        transport=gas_transport(geom='nonlinear',
                                diam=6.371,
                                well_depth=440.03))

species(name='S(59)',
        atoms='C:4 H:10 O:2',
        thermo=(NASA([100.00, 1562.75],
                     [ 9.28289896E-01,  6.25643507E-02, -4.36172231E-05,
                       1.55741582E-08, -2.28485944E-12, -2.93847083E+04,
                       2.37550106E+01]),
                NASA([1562.75, 5000.00],
                     [ 1.36578013E+01,  2.99819743E-02, -1.23431068E-05,
                       2.23265330E-09, -1.50557496E-13, -3.33633122E+04,
                      -4.33405610E+01])),
        transport=gas_transport(geom='nonlinear',
                                diam=6.371,
                                well_depth=440.03))

species(name='C3H7O2(60)',
        atoms='C:3 H:7 O:2',
        thermo=(NASA([100.00, 1069.46],
                     [ 2.18579653E+00,  4.23352388E-02, -3.16174243E-05,
                       1.42840080E-08, -2.95574576E-12, -6.77320194E+03,
                       1.81007439E+01]),
                NASA([1069.46, 5000.00],
                     [ 5.84049032E+00,  2.86658400E-02, -1.24449086E-05,
                       2.33240182E-09, -1.61885305E-13, -7.55490635E+03,
                       2.23557327E-01])),
        transport=gas_transport(geom='nonlinear',
                                diam=6.025,
                                well_depth=420.255))

species(name='C3H7O2(61)',
        atoms='C:3 H:7 O:2',
        thermo=(NASA([100.00, 1451.70],
                     [ 1.98971865E+00,  4.25133829E-02, -2.91469797E-05,
                       1.07221258E-08, -1.66661340E-12, -8.28351602E+03,
                       1.77594526E+01]),
                NASA([1451.70, 5000.00],
                     [ 8.87698053E+00,  2.35361735E-02, -9.53825399E-06,
                       1.71712260E-09, -1.15835357E-13, -1.02831515E+04,
                      -1.80346884E+01])),
        transport=gas_transport(geom='nonlinear',
                                diam=6.057,
                                well_depth=422.794))

species(name='C4H9O(62)',
        atoms='C:4 H:9 O:1',
        thermo=(NASA([100.00, 1059.95],
                     [ 1.71808048E+00,  4.23019664E-02, -9.41419870E-06,
                      -1.31101285E-08,  6.78067782E-12, -1.03042874E+04,
                       1.99627540E+01]),
                NASA([1059.95, 5000.00],
                     [ 9.96274737E+00,  2.72041144E-02, -1.07127269E-05,
                       1.96150310E-09, -1.36257818E-13, -1.29517513E+04,
                      -2.45369589E+01])),
        transport=gas_transport(geom='nonlinear',
                                diam=6.173,
                                well_depth=422.421))

species(name='C4H9O2(72)',
        atoms='C:4 H:9 O:2',
        thermo=(NASA([100.00, 1368.17],
                     [ 1.17751664E+00,  6.09183340E-02, -4.63200582E-05,